Circuit: * C:\Users\caranda\Desktop\Repositorios\PonchosEDU-CIAA\DataloggerSMNViento\SimulacionesLTSPICE\Draft1.asc

Direct Newton iteration for .op point succeeded.

Date: Fri Mar 15 16:05:01 2024
Total elapsed time: 0.057 seconds.

tnom = 27
temp = 27
method = modified trap
totiter = 86
traniter = 80
tranpoints = 41
accept = 41
rejected = 0
matrix size = 8
fillins = 0
solver = Normal
Matrix Compiler1: 246 bytes object code size
Matrix Compiler2: 526 bytes object code size
