Circuit: * C:\Users\caranda\Desktop\Repositorios\PonchosEDU-CIAA\DataloggerSMNViento\SimulacionesLTSPICE\Version2CircuitoVDC.asc

Direct Newton iteration for .op point succeeded.

Date: Mon Mar 18 08:56:42 2024
Total elapsed time: 0.043 seconds.

tnom = 27
temp = 27
method = modified trap
totiter = 88
traniter = 80
tranpoints = 41
accept = 41
rejected = 0
matrix size = 8
fillins = 0
solver = Normal
Matrix Compiler1: 246 bytes object code size
Matrix Compiler2: 526 bytes object code size
